LTspice 24.0.12 for Windows
Circuit: * C:\Users\Ghani\Documents\ECE Projects\Variable_Voltage_Controller\Spice Designs\Power_Selector\Individal_Tests_PNP\A1.asc
Start Time: Sat Jan  4 21:45:59 2025
Warning: Multiple definitions of model "2scr375p" Type: BJT
Warning: Multiple definitions of model "bc857b" Type: BJT
Warning: Multiple definitions of model "bc847c" Type: BJT
Warning: Multiple definitions of model "bc847b" Type: BJT
solver = Normal
Maximum thread count: 16
tnom = 27
temp = 27
method = modified trap
WARNING: Less than two connections to node nc_01.  This node is used by v§buck.
WARNING: Less than two connections to node plug.  This node is used by vp.
WARNING: Less than two connections to node buck.  This node is used by q2.
Direct Newton iteration for .op point succeeded.
Total elapsed time: 0.055 seconds.

