LTspice 24.0.12 for Windows
Circuit: * C:\Users\Ghani\Documents\ECE Projects\Variable_Voltage_Controller\Spice Designs\Power_Selector\Individal_Tests_B2BPMOS\A2.asc
Start Time: Sat Jan  4 21:57:14 2025
solver = Normal
Maximum thread count: 16
tnom = 27
temp = 27
method = modified trap
WARNING: Less than two connections to node n003.  This node is used by v§stlink.
Direct Newton iteration for .op point succeeded.
Total elapsed time: 0.068 seconds.

