LTspice 24.1.9 for Windows
Circuit: C:\Users\Ghani\Documents\ECE Projects\Variable_Voltage_Controller\Spice_Designs\Power_Selector\PMUX_Final_Design.net
Start Time: Sun Aug  3 20:46:39 2025
solver = Normal
Maximum thread count: 16
tnom = 27
temp = 27
method = modified trap
Direct Newton iteration failed to find .op point.  (Use ".option noopiter" to skip.)
Starting Gmin stepping
Gmin = 10
Gmin = 1.07374
Gmin = 0.115292
Gmin = 0.0123794
Gmin = 0.00132923
Gmin = 0.000142725
Gmin = 1.5325e-05
vernier = 0.5
vernier = 0.666667
Gmin = 5.35545e-06
vernier = 0.888888
vernier = 1
Gmin = 8.09366e-07
Gmin = 8.6905e-08
Gmin = 9.33136e-09
Gmin = 1.00195e-09
Gmin = 1.07583e-10
Gmin = 1.15517e-11
Gmin = 1.24035e-12
Gmin = 1.33182e-13
Gmin = 0
Gmin stepping succeeded in finding the operating point.

Total elapsed time: 0.185 seconds.

Files loaded:
C:\Users\Ghani\Documents\ECE Projects\Variable_Voltage_Controller\Spice_Designs\Power_Selector\PMUX_Final_Design.net
C:\Users\Ghani\AppData\Local\LTspice\lib\cmp\standard.dio
C:\Users\Ghani\AppData\Local\LTspice\lib\cmp\standard.mos
C:\Users\Ghani\AppData\Local\LTspice\lib\sub\LTC3.lib

