LTspice 24.0.12 for Windows
Circuit: * C:\Users\Ghani\Documents\ECE Projects\Variable_Voltage_Controller\Spice Designs\Power_Selector\Full_Power_Selector\Full_Power_Selector_8.asc
Start Time: Sat Jan  4 20:24:18 2025
Warning: Multiple definitions of model "mysw1" Type: Switch
Warning: Multiple definitions of model "2scr375p" Type: BJT
Warning: Multiple definitions of model "bc857b" Type: BJT
Warning: Multiple definitions of model "bc847c" Type: BJT
Warning: Multiple definitions of model "bc847b" Type: BJT
solver = Normal
Maximum thread count: 16
tnom = 27
temp = 27
method = modified trap
WARNING: Node NC_02 is floating.

WARNING: Less than two connections to node v1.  This node is used by v1.
WARNING: Less than two connections to node nc_01.  This node is used by s1.
WARNING: Less than two connections to node nc_02.  This node is used by s1.
WARNING: Less than two connections to node nc_03.  This node is used by r4.
WARNING: Less than two connections to node vb.  This node is used by q1.
Direct Newton iteration for .op point succeeded.
Total elapsed time: 0.072 seconds.

